  
       XFOIL         Version 6.99
  
 Calculated polar for: NACA 0021                                       
  
 1 1 Reynolds number fixed          Mach number fixed         
  
 xtrf =   1.000 (top)        1.000 (bottom)  
 Mach =   0.196     Re =     4.809 e 6     Ncrit =   9.000
  
   alpha    CL        CD       CDp       CM     Top_Xtr  Bot_Xtr
  ------ -------- --------- --------- -------- -------- --------
  -5.000  -0.5743   0.00730   0.00241  -0.0020   0.6133   0.2027
  -4.000  -0.4613   0.00698   0.00208  -0.0012   0.5636   0.2343
  -3.000  -0.3472   0.00673   0.00183  -0.0007   0.5152   0.2690
  -2.000  -0.2320   0.00656   0.00166  -0.0003   0.4695   0.3058
  -1.000  -0.1162   0.00646   0.00156  -0.0001   0.4255   0.3440
   0.000   0.0000   0.00642   0.00152  -0.0000   0.3844   0.3844
   1.000   0.1162   0.00645   0.00156   0.0001   0.3444   0.4259
   2.000   0.2321   0.00656   0.00166   0.0003   0.3058   0.4693
   3.000   0.3472   0.00673   0.00183   0.0007   0.2688   0.5155
   4.000   0.4613   0.00698   0.00208   0.0012   0.2343   0.5637
   5.000   0.5743   0.00730   0.00241   0.0020   0.2026   0.6134
   6.000   0.6858   0.00772   0.00282   0.0030   0.1738   0.6636
   7.000   0.7946   0.00820   0.00334   0.0046   0.1482   0.7203
   8.000   0.9007   0.00879   0.00396   0.0066   0.1262   0.7750
   9.000   1.0023   0.00949   0.00472   0.0094   0.1073   0.8298
  10.000   1.0915   0.01033   0.00562   0.0145   0.0920   0.8824
  11.000   1.1809   0.01136   0.00673   0.0192   0.0808   0.9283
  12.000   1.2585   0.01274   0.00818   0.0256   0.0704   0.9722
  13.000   1.3481   0.01452   0.00997   0.0285   0.0628   0.9965
  14.000   1.4243   0.01686   0.01231   0.0324   0.0560   1.0000
  15.000   1.4872   0.01992   0.01542   0.0372   0.0507   1.0000
  16.000   1.5417   0.02407   0.01964   0.0411   0.0463   1.0000
  17.000   1.5853   0.02959   0.02526   0.0440   0.0427   1.0000
  18.000   1.6112   0.03724   0.03304   0.0457   0.0393   1.0000
  19.000   1.6235   0.04677   0.04274   0.0460   0.0371   1.0000
  20.000   1.6129   0.05911   0.05529   0.0446   0.0349   1.0000
