  
       XFOIL         Version 6.99
  
 Calculated polar for: NACA 2412                                       
  
 1 1 Reynolds number fixed          Mach number fixed         
  
 xtrf =   1.000 (top)        1.000 (bottom)  
 Mach =   0.196     Re =     4.809 e 6     Ncrit =   9.000
  
   alpha    CL        CD       CDp       CM     Top_Xtr  Bot_Xtr
  ------ -------- --------- --------- -------- -------- --------
  -5.000  -0.3331   0.00644   0.00176  -0.0535   0.7750   0.0416
  -4.000  -0.2168   0.00613   0.00137  -0.0534   0.7141   0.0601
  -3.000  -0.1005   0.00587   0.00107  -0.0534   0.6508   0.0932
  -2.000   0.0158   0.00566   0.00088  -0.0535   0.5875   0.1470
  -1.000   0.1322   0.00552   0.00077  -0.0537   0.5278   0.2191
   0.000   0.2487   0.00540   0.00076  -0.0539   0.4767   0.3116
   1.000   0.3646   0.00523   0.00081  -0.0542   0.4310   0.4507
   2.000   0.4797   0.00513   0.00096  -0.0542   0.3792   0.6143
   3.000   0.5925   0.00531   0.00125  -0.0538   0.3051   0.7664
   4.000   0.7017   0.00572   0.00171  -0.0525   0.2230   0.9070
   5.000   0.8069   0.00653   0.00231  -0.0503   0.1391   0.9853
   6.000   0.9374   0.00762   0.00306  -0.0539   0.0754   1.0000
   7.000   1.0386   0.00854   0.00380  -0.0509   0.0465   1.0000
   8.000   1.1442   0.00951   0.00466  -0.0488   0.0309   1.0000
   9.000   1.2497   0.01052   0.00563  -0.0467   0.0228   1.0000
  10.000   1.3519   0.01171   0.00679  -0.0441   0.0171   1.0000
  11.000   1.4504   0.01302   0.00812  -0.0408   0.0140   1.0000
  12.000   1.5413   0.01460   0.00975  -0.0363   0.0115   1.0000
  13.000   1.6183   0.01631   0.01154  -0.0295   0.0103   1.0000
  14.000   1.6784   0.01884   0.01422  -0.0211   0.0090   1.0000
  15.000   1.7329   0.02214   0.01768  -0.0137   0.0082   1.0000
  16.000   1.7677   0.02752   0.02327  -0.0069   0.0073   1.0000
  17.000   1.7909   0.03500   0.03101  -0.0027   0.0069   1.0000
  18.000   1.7949   0.04566   0.04195  -0.0013   0.0066   1.0000
  19.000   1.7713   0.06088   0.05751  -0.0036   0.0063   1.0000
  20.000   1.7158   0.08135   0.07834  -0.0096   0.0061   1.0000
